Labs/Figures/LabSix/PFOut15-23.dat
  Power Flow Case Title :                               
  Base MVA :  100.0 MVA

            CONVERGENCE SUMMARY 
   ITER            DELP              DELQ

    0.0          0.933447
    0.5                            0.822618
    1.0          0.170181
    1.5                            0.046542
    2.0          0.013035
    2.5                            0.002342
    3.0          0.001560
    3.5                            0.185750
    4.0          0.080727
    4.5                            0.020630
    5.0          0.003444
    5.5                            0.014395
    6.0          0.004591
    6.5                            0.001247
    7.0          0.000561
    7.5                            0.000200

  **************************** POWER FLOW REPORT ***************************

  BUS   VOLTAGE   ANGLE        GENERATION               LOAD  
  NO.    (PU)     (DEG)      (MW)       (MVAR)       (MW)        (MVAR)  


    30  0.9242   -26.77     0.00000     0.00000    10.60000     1.90000
    TO-BUS    29      -3.66959 MW    -0.54297 MVAR           
    TO-BUS    27      -6.92736 MW    -1.35297 MVAR           

    29  0.9365   -25.75     0.00000     0.00000     2.40000     0.90000
    TO-BUS    27      -6.10814 MW    -1.51538 MVAR           
    TO-BUS    30       3.70824 MW     0.61600 MVAR           

    27  0.9579   -24.35     0.00000     0.00000     0.00000     0.00000
    TO-BUS    25      27.54650 MW     4.77663 MVAR           
    TO-BUS    29       6.20740 MW     1.70292 MVAR           
    TO-BUS    30       7.11413 MW     1.70451 MVAR           
    TO-BUS    28     -40.87850 MW    -8.18904 MVAR           

    28  0.9738   -14.67     0.00000     0.00000     0.00000     0.00000
    TO-BUS     6     -36.82592 MW    -9.46000 MVAR           
    TO-BUS     8      -4.05444 MW    -6.23291 MVAR           
    TO-BUS    27      40.87850 MW    15.69079 MVAR           

    26  0.8980   -28.27     0.00000     0.00000     3.50000     2.30000
    TO-BUS    25      -3.49975 MW    -2.29897 MVAR           

    24  0.9522   -24.02     0.00000     0.00000     8.70000     6.70000
    TO-BUS    25      17.56534 MW     0.48414 MVAR           
    TO-BUS    23       3.21869 MW     1.63814 MVAR           
    TO-BUS    22     -29.48825 MW    -4.92391 MVAR           

    25  0.9177   -27.75     0.00000     0.00000    40.00000     0.00000
    TO-BUS    26       3.55507 MW     2.38160 MVAR           
    TO-BUS    27     -26.61537 MW    -2.99871 MVAR           
    TO-BUS    24     -16.92333 MW     0.63708 MVAR           

    23  0.9431   -24.44     0.00000     0.00000     3.20000     1.60000
    TO-BUS    24      -3.19970 MW    -1.59929 MVAR           

    14  1.0352   -18.66     0.00000     0.00000     6.20000     1.60000
    TO-BUS    15       1.44780 MW     0.29235 MVAR           
    TO-BUS    12      -7.64681 MW    -1.89109 MVAR           

    15  1.0315   -18.78     0.00000     0.00000     8.20000     2.50000
    TO-BUS    18      10.65476 MW     2.69858 MVAR           
    TO-BUS    12     -17.41240 MW    -4.91140 MVAR           
    TO-BUS    14      -1.44330 MW    -0.28828 MVAR           

    18  1.0149   -19.90     0.00000     0.00000     3.20000     0.90000
    TO-BUS    19       7.33287 MW     1.55040 MVAR           
    TO-BUS    15     -10.53293 MW    -2.45051 MVAR           

    12  1.0491   -17.75     0.00000     0.00000    11.20000     7.50000
    TO-BUS    16      13.41799 MW     5.01789 MVAR           
    TO-BUS    13       0.00000 MW   -16.35722 MVAR           
    TO-BUS     4     -49.95237 MW    -3.51160 MVAR           
    TO-BUS    14       7.71809 MW     2.03927 MVAR           
    TO-BUS    15      17.61605 MW     5.31253 MVAR           

    19  1.0084   -20.37     0.00000     0.00000     9.50000     3.40000
    TO-BUS    20      -2.20190 MW    -1.91985 MVAR           
    TO-BUS    18      -7.29802 MW    -1.47994 MVAR           

    20  1.0104   -20.32     0.00000     0.00000     2.20000     0.70000
    TO-BUS    10      -4.40479 MW    -2.62565 MVAR           
    TO-BUS    19       2.20475 MW     1.92556 MVAR           

    22  0.9983   -21.18     0.00000     0.00000     0.00000     0.00000
    TO-BUS    21     -13.21504 MW    -0.85644 MVAR           
    TO-BUS    10     -17.41078 MW    -5.83405 MVAR           
    TO-BUS    24      30.62203 MW     6.68866 MVAR   OVERLOAD

    21  1.0000   -21.00     0.00000     0.00000    17.50000    11.20000
    TO-BUS    10     -30.73688 MW   -12.09975 MVAR           
    TO-BUS    22      13.23546 MW     0.89797 MVAR           

    10  1.0199   -19.95     0.00000     0.00000     5.80000     2.00000
    TO-BUS     9     -37.18384 MW    -8.97758 MVAR           
    TO-BUS    17      -0.68708 MW     3.14954 MVAR           
    TO-BUS    21      31.11661 MW    12.91704 MVAR           
    TO-BUS    22      17.65677 MW     6.34125 MVAR           
    TO-BUS     6     -21.13038 MW     1.65921 MVAR           
    TO-BUS    20       4.42890 MW     2.67949 MVAR           

    17  1.0175   -19.86     0.00000     0.00000     9.00000     5.80000
    TO-BUS    10       0.69031 MW    -3.14110 MVAR           
    TO-BUS    16      -9.69066 MW    -2.65960 MVAR           

    16  1.0277   -18.91     0.00000     0.00000     3.50000     1.80000
    TO-BUS    17       9.74176 MW     2.84715 MVAR           
    TO-BUS    12     -13.24178 MW    -4.64737 MVAR           

     4  0.9922   -11.18     0.00000     0.00000     7.60000     1.60000
    TO-BUS    12      49.95237 MW     9.34448 MVAR           
    TO-BUS     6      91.05951 MW    -9.50893 MVAR           
    TO-BUS     2     -51.59127 MW    -5.04978 MVAR           
    TO-BUS     3     -97.01904 MW     3.61835 MVAR           

    13  1.0709   -17.75     0.00000    16.69758     0.00000     0.00000
    TO-BUS    12       0.00000 MW    16.69758 MVAR           

     1  1.0600     0.00   310.86511     5.13018     0.00000     0.00000
    TO-BUS     2     205.64988 MW    -7.50271 MVAR           
    TO-BUS     3     105.22836 MW    12.63289 MVAR           

     2  1.0314    -6.26    40.00000    50.00000    21.70000    12.70000
    TO-BUS     4      53.13829 MW     5.99537 MVAR           
    TO-BUS     5      89.19511 MW     3.29182 MVAR           
    TO-BUS     6      74.38567 MW     4.63370 MVAR           
    TO-BUS     1    -198.41956 MW    23.38158 MVAR           

     9  1.0304   -17.72     0.00000     0.00000     0.00000     0.00000
    TO-BUS    11       0.00000 MW   -22.97244 MVAR           
    TO-BUS    10      37.18384 MW    10.52486 MVAR           
    TO-BUS     6     -37.18385 MW    12.44768 MVAR           

     6  0.9859   -13.45     0.00000     0.00000     0.00000     0.00000
    TO-BUS     9      37.18385 MW    -9.43537 MVAR           
    TO-BUS    10      21.13038 MW     0.74196 MVAR           
    TO-BUS     8      34.22826 MW    -8.14575 MVAR           
    TO-BUS     7      31.76392 MW    -5.22759 MVAR           
    TO-BUS     2     -71.33939 MW     0.80334 MVAR           
    TO-BUS    28      37.08153 MW     9.11779 MVAR           
    TO-BUS     4     -90.04736 MW    12.14974 MVAR           

    11  1.0768   -17.72     0.00000    24.00000     0.00000     0.00000
    TO-BUS     9       0.00000 MW    24.00633 MVAR           

     7  0.9813   -15.06     0.00000     0.00000    22.80000    10.90000
    TO-BUS     5       8.68128 MW   -15.35014 MVAR           
    TO-BUS     6     -31.48144 MW     4.45041 MVAR           

     5  0.9944   -16.04     0.00000    40.00000    94.20000    19.00000
    TO-BUS     7      -8.54667 MW    13.69873 MVAR           
    TO-BUS     2     -85.65133 MW     7.30687 MVAR           

     8  0.9851   -14.35     0.00000    40.00000    30.00000    30.00000
    TO-BUS    28       4.07731 MW     2.19861 MVAR           
    TO-BUS     6     -34.07628 MW     7.80358 MVAR           

     3  1.0043    -9.03     0.00000     0.00000     2.40000     1.20000
    TO-BUS     4      98.28319 MW    -0.82585 MVAR           
    TO-BUS     1    -100.68432 MW    -0.37481 MVAR           



  *********************** AREA INTERCHANGE REPORT ***************************

  FROM AREA

                TO   AREA   MW FLOW  MVAR FLOW

